powerflow/Codes/PF_Formulation/resultados_csv/300bus__1617_qv.csv
ID_Barra,Tipo_Barra,Vm_pu,Va_graus,Pg_pu,Qg_pu,Pd_pu,Qd_pu,Slack_QLIM_pu,Slack_VLIM_pu
1,1,1.0704196662680112,53.027000966964366,0.0,0.0,0.9,0.49,0.0,-0.004210575618459007
2,1,1.0751586631829162,53.87652242288412,0.0,0.0,0.56,0.15,0.0,-0.004912828047318004
3,1,1.0214873318637863,53.80126633075993,0.0,0.0,0.2,0.0,0.0,-0.00969070368239471
4,1,1.0471936497562364,50.603114266431575,0.0,0.0,0.0,0.0,0.0,-0.014933904005081135
5,1,1.0605524098844457,51.85103895405094,0.0,0.0,3.53,1.3,0.0,-0.004528000089069034
6,1,1.0696464850472394,53.420949938517346,0.0,0.0,1.2,0.41,0.0,-0.005447089217442535
7,1,1.0213570788870547,53.66596975718373,0.0,0.0,0.0,0.0,0.0,-0.008074772596091215
8,2,1.046324756296439,47.75106304269852,0.0,0.10000000995250871,0.58,0.14,0.03232475629643896,-0.009571132551457645
9,1,1.0479600786969403,49.736786727778295,0.0,0.0,0.96,0.43,0.0,-0.004224630311498265
10,2,1.0602197766883448,48.524651337067475,0.0,0.20000000989893177,1.48,0.33,0.04121977668834495,-0.00449741207144165
11,1,1.0524599294594768,48.97554794995528,0.0,0.0,0.83,0.21,0.0,-0.0045905949987367625
12,1,1.0309798100380085,52.319263473397136,0.0,0.0,0.0,0.0,0.0,-0.006436101879713672
13,1,1.043834742799722,46.304854426860146,0.0,0.0,0.58,0.1,0.0,-0.003659438019645427
14,1,1.0091615040805624,38.01873799289061,0.0,0.0,1.6,0.6,0.0,-0.022347435954137573
15,1,1.0322684834724607,31.468683262506634,0.0,0.0,1.2670000000000001,0.23,0.0,-0.0361054959082892
16,1,1.0242419693044387,38.16832245516232,0.0,0.0,0.0,0.0,0.0,-0.03532646786230265
17,1,1.0642567337492197,26.883278149651925,0.0,0.0,5.61,2.2,0.0,-0.03974561335589743
19,1,1.016433732919703,47.06791032216565,0.0,0.0,0.0,0.0,0.0,-0.0049925561792924745
20,2,1.0454939152464533,44.640308245864176,0.0,0.200000009846811,5.95,1.2,0.0464939152464533,-0.002967219838290489
21,1,1.014417423969044,48.33922347045919,0.0,0.0,0.77,0.01,0.0,-0.004002584254453907
22,1,1.042981369183571,45.05346355320328,0.0,0.0,0.81,0.23,0.0,-0.0013674982331015268
23,1,1.1000000109839692,50.35582062218455,0.0,0.0,0.21,0.07,0.0,1.5266399088224885e-6
24,1,1.0572436978515465,52.26262720575922,0.0,0.0,0.0,0.0,0.0,-0.0017065039599036692
25,1,1.0745435260518224,48.08209529900495,0.0,0.0,0.45,0.12,0.0,0.0005604736582860185
26,1,1.0505296076817987,45.2092927615336,0.0,0.0,0.28,0.09,0.0,-0.00010518197104389065
27,1,1.026017808684378,42.36880471740352,0.0,0.0,0.69,0.13,0.0,-0.0005617852657996674
33,1,1.0224201231942456,18.569295525592995,0.0,0.0,0.55,0.06,0.0,-0.08013400638882845
34,1,1.0362958073644424,26.797010246024232,0.0,0.0,0.0,0.0,0.0,-0.058357883851969064
35,1,1.0388266002138384,10.389201902143173,0.0,0.0,0.0,0.0,0.0,-0.011639770259206797
36,1,1.053892432294934,13.204978030849922,0.0,0.0,0.0,0.0,0.0,-0.01705405724633984
37,1,1.0056370271460915,16.94603601199688,0.0,0.0,0.85,0.32,0.0,-0.09272336109531967
38,1,1.016984459463399,17.668515530487152,0.0,0.0,1.55,0.18,0.0,-0.08196055682385783
39,1,1.0529391821432277,29.42718193819929,0.0,0.0,0.0,0.0,0.0,-0.05531388442468855
40,1,1.023807601505105,17.434892759434387,0.0,0.0,0.46,-0.21,0.0,-0.07889435371978702
41,1,1.0196531339645323,19.12957669175884,0.0,0.0,0.86,0.0,0.0,-0.08872270465389058
42,1,1.041252312164295,27.80241783670151,0.0,0.0,0.0,0.0,0.0,-0.055435264386288936
43,1,1.0251799733073117,16.237539811843753,0.0,0.0,0.39,0.09,0.0,-0.059322067948370125
44,1,1.0411815755636271,17.63779685438774,0.0,0.0,1.95,0.29,0.0,-0.044858850720917706
45,1,1.0479831032695943,21.032497312933305,0.0,0.0,0.0,0.0,0.0,-0.04075919980075366
46,1,1.0486596358152138,23.59540381931973,0.0,0.0,0.0,0.0,0.0,-0.04483892119822116
47,1,1.0284506042007269,12.607101229972114,0.0,0.0,0.58,0.11800000000000001,0.0,-0.03238110605778055
48,1,1.0386927861277673,17.28045474393695,0.0,0.0,0.41,0.19,0.0,-0.04239661356289232
49,1,0.9020615166409631,3.8743314545504646,0.0,0.0,0.92,0.26,0.0,-0.2215963103783553
51,1,0.9674343581540762,13.083243652640554,0.0,0.0,-0.05,0.05,0.0,-0.14061220843892247
52,1,0.9844000720825264,15.155560999845152,0.0,0.0,0.61,0.28,0.0,-0.10550479229365257
53,1,1.0230506935067427,15.532870618758574,0.0,0.0,0.69,0.03,0.0,-0.05946697940916561
54,1,1.0322125703898064,17.03032782112364,0.0,0.0,0.1,0.01,0.0,-0.05958786430057631
55,1,1.0273268214617415,19.152058432078984,0.0,0.0,0.22,0.1,0.0,-0.0776332567991643
57,1,1.0833638305348463,29.037561647989623,0.0,0.0,0.98,0.2,0.0,-0.04838607846579563
58,1,1.0658498029544492,33.0790996251681,0.0,0.0,0.14,0.01,0.0,-0.03587764174679887
59,1,1.0575287776196403,34.45338873444057,0.0,0.0,2.18,1.06,0.0,-0.03249147063670263
60,1,1.0557059914914415,28.407021564715997,0.0,0.0,0.0,0.0,0.0,-0.03611402693356651
61,1,1.0687946644535873,36.394886145799234,0.0,0.0,2.27,1.1,0.0,-0.030953850272459088
62,1,1.0675883445090848,40.1359129386633,0.0,0.0,0.0,0.0,0.0,-0.02597864320017278
63,2,1.0378390374296993,24.51751007042035,0.0,0.25000000998001387,0.7,0.3,0.07983903742969921,-0.02274305177914133
64,1,1.0204411144636323,28.77649622347203,0.0,0.0,0.0,0.0,0.0,-0.02381335356242396
69,1,1.0332969886867132,10.467758961198278,0.0,0.0,0.0,0.0,0.0,-0.004813234041064411
70,1,1.023455981144302,2.021100520956626,0.0,0.0,0.56,0.2,0.0,-0.013870793815815087
71,1,1.0453979392843873,6.6813829873883375,0.0,0.0,1.16,0.38,0.0,-0.013653819545828788
72,1,1.0359318771111525,8.802313204569273,0.0,0.0,0.57,0.19,0.0,-0.01110357059205738
73,1,1.0351453432368247,10.447268399387127,0.0,0.0,2.24,0.71,0.0,-0.017857616088643516
74,1,1.0448361840422404,13.867363165615433,0.0,0.0,0.0,0.0,0.0,-0.023261499124790346
76,2,1.0272827760735692,9.66400864731411,0.0,0.35000000995864405,2.08,1.07,0.06428277607356923,-0.010991057390548824
77,1,1.050391502573312,10.995718267712547,0.0,0.0,0.74,0.28,0.0,-0.009538059799202232
78,1,1.0573893610990541,11.768030459755442,0.0,0.0,0.0,0.0,0.0,-0.008854258667234867
79,1,1.0473719416931029,11.00222059866866,0.0,0.0,0.48,0.14,0.0,-0.010652716176634188
80,1,1.0533975544361218,10.922138885315414,0.0,0.0,0.28,0.07,0.0,-0.007167758702503151
81,1,1.0723475781801945,16.619854052886993,0.0,0.0,0.0,0.0,0.0,-0.01968266647922941
84,2,1.100000010997563,17.77298289446968,3.75,1.609276866102798,0.37,0.13,0.07500001099756307,-4.614743578964241e-13
85,1,1.0643571379092125,19.792733124000925,0.0,0.0,0.0,0.0,0.0,-0.009511976387137655
86,1,1.054666538167146,24.211523392890886,0.0,0.0,0.0,0.0,0.0,-0.005764709001435177
87,1,1.0317462859910498,33.697033888854165,0.0,0.0,0.0,0.0,0.0,-0.00410830726858395
88,1,1.060879329009075,14.754408234334864,0.0,0.0,0.0,0.0,0.0,-0.020126901947248043
89,1,1.0503211154184464,24.53388036599745,0.0,0.0,0.442,0.0,0.0,-0.03123348499741723
90,1,1.0396256608211996,20.984791390921615,0.0,0.0,0.66,0.0,0.0,-0.051165323881199674
91,2,1.1000000109986843,27.454097448391472,1.55,0.5800924554816718,0.174,0.0,0.04800001099868405,-5.377900606668786e-13
92,2,1.1000000109989598,27.53557871437173,2.9,0.4116101182156945,0.158,0.0,0.04800001099895959,-1.7232095455618057e-13
94,1,1.0400361222837147,31.249994733160413,0.0,0.0,0.603,0.0,0.0,-0.001956084915691698
97,1,1.0790567225941379,23.967380918838476,0.0,0.0,0.39899999999999997,0.0,0.0,-0.0027845641001094843
98,2,1.077823589414457,22.865484614911075,0.68,0.07643490545820823,0.667,0.0,0.07782358941445683,2.6751265931872164e-13
99,1,1.0792345563966115,16.668373051965496,0.0,0.0,0.835,0.0,0.0,-0.011604526013981322
100,1,1.0757476529732881,23.07501575987017,0.0,0.0,0.0,0.0,0.0,-0.0023263069124404684
102,1,1.0718420439688485,22.569958375263106,0.0,0.0,0.778,0.0,0.0,-0.0033222155383430853
103,1,1.0828513936958561,23.14389467144467,0.0,0.0,0.32,0.0,0.0,-0.005689940530668388
104,1,1.0739104485485844,20.15962368412567,0.0,0.0,0.086,0.0,0.0,-0.007072378361621238
105,1,1.0772524389476241,21.82877909269963,0.0,0.0,0.496,0.0,0.0,-0.00975090189209436
107,1,1.0650779445484768,18.547399330938422,0.0,0.0,0.046,0.0,0.0,-0.025398840931129592
108,2,1.0815945147662698,16.647623735574932,1.17,0.7700000099607512,1.121,0.0,0.09159451476626977,-0.01158110896342529
109,1,1.0576299530576698,10.887596993391373,0.0,0.0,0.307,0.0,0.0,-0.01560984528560803
110,1,1.0578764828645697,12.21152924937638,0.0,0.0,0.63,0.0,0.0,-0.012273412272389735
112,1,1.0578633733829852,8.471133508224657,0.0,0.0,0.196,0.0,0.0,-0.006395752275824735
113,1,1.0333344787891643,10.842336455523226,0.0,0.0,0.262,0.0,0.0,-0.027417460745629608
114,1,1.0594122779950486,8.529703116630719,0.0,0.0,0.182,0.0,0.0,-0.00561008897722846
115,1,0.969121255786005,69.2072010926138,0.0,0.0,0.0,0.0,0.0,-0.010647353594659202
116,1,0.9584930636356019,76.55485738977661,0.0,0.0,0.0,0.0,0.0,0.005189437876581901
117,1,0.9629895619439115,81.43563576946465,0.0,0.0,0.0,0.0,0.0,-0.006922737600645676
118,1,0.9581960045274812,82.46594854199601,0.0,0.0,0.141,6.5,0.0,-0.0071063432475284675
119,2,1.0922173307490586,95.98638102777059,19.3,13.073156771886051,0.0,0.0,0.04821733074905858,0.0
120,1,1.0538454932858903,93.43953413266517,0.0,0.0,0.0,0.0,0.0,0.014878464112518131
121,1,0.8999999900011459,72.3984164388009,0.0,0.0,5.35,0.55,0.0,-0.015044380964217926
122,1,0.941541663441976,67.03135653713406,0.0,0.0,2.291,0.11800000000000001,0.0,-0.006311867640009408
123,1,0.9256668463690428,62.115780330354006,0.0,0.0,0.78,0.013999999999999999,0.0,0.0006901824809935781
124,2,0.9276474879373301,73.51219930631817,2.4,-0.6000000099051866,2.764,0.593,-0.03535251206266987,0.004794105259518459
125,2,0.9765974174942145,52.40204063232433,0.0,2.000000019737035,5.148,0.8270000000000001,0.03159741749421453,-0.0017285398808094313
126,1,0.9772736200546093,56.86639473105667,0.0,0.0,0.579,0.051,0.0,-0.0012759914492593586
127,1,1.0054579472329026,52.51683136537977,0.0,0.0,3.8080000000000003,0.37,0.0,-0.0007276718561952479
128,1,1.0185948417481476,54.18389000330985,0.0,0.0,0.0,0.0,0.0,-0.0007051422384384742
129,1,1.0172761646432091,54.876856194327026,0.0,0.0,0.0,0.0,0.0,-0.0007478957254607083
130,1,1.0516580571585579,57.70254992172181,0.0,0.0,0.0,0.0,0.0,-0.004154899012635666
131,1,1.0168633074228643,54.819650742305086,0.0,0.0,0.0,0.0,0.0,-0.006764257895182653
132,1,1.036467183436582,56.577141243669026,0.0,0.0,0.0,0.0,0.0,-0.0035281313830103525
133,1,1.0126715371535289,53.849769489175046,0.0,0.0,0.0,0.0,0.0,0.00029260657660817
134,1,1.0352891497012455,54.26680254640554,0.0,0.0,0.0,0.0,0.0,-0.0005195026903975366
135,1,1.0324843684186482,54.99609638246799,0.0,0.0,1.692,0.41600000000000004,0.0,6.232212955281158e-5
136,1,1.056444196299362,62.01502023110309,0.0,0.0,0.552,0.182,0.0,0.00023527139765905752
137,1,1.0717385948962455,57.780696802321835,0.0,0.0,2.736,0.998,0.0,-0.00016377242092821353
138,2,1.0791567178754233,54.210776268519226,0.0,1.6824927337601057,8.267000000000001,1.3519999999999999,0.027156717875423352,-9.508968454136632e-14
139,1,1.0238655383709787,54.57846975068178,0.0,0.0,5.95,0.833,0.0,-0.00011284981887093688
140,1,1.0622104889893158,54.786813838298016,0.0,0.0,3.877,1.147,0.0,-0.0002605328054931835
141,2,1.0534134232703911,57.136565293457764,2.81,0.47727063929623,1.45,0.58,0.0024134232703913595,-1.2015365777623618e-12
142,1,1.0489729155556577,50.16888323364663,0.0,0.0,0.565,0.245,0.0,-0.003238805396845656
143,2,1.0931914002631697,53.71576597119377,6.96,3.0000000299323095,0.895,0.355,0.049191400263169816,-0.006715088885112676
144,1,1.0673217830021313,41.19075535758817,0.0,0.0,0.0,0.0,0.0,-0.024538493860326707
145,1,1.0211343282539231,52.44855082211043,0.0,0.0,0.24,0.14,0.0,0.00010062933851505605
146,2,1.047049994075027,58.98264359092299,0.84,-0.1500000085913724,0.0,0.0,-0.0049500059249729614,0.0
147,2,1.0508980511684751,63.47559056465152,2.17,-0.5000000094877751,0.0,0.0,-0.0021019488315247073,0.0
148,1,1.0984909813843187,50.581825786351565,0.0,0.0,0.63,0.25,0.0,-0.007317251293796597
149,2,1.1000000109939394,55.903917544397835,1.03,0.31681455756878224,0.0,0.0,0.027000010993939613,0.0
150,1,1.0158701264833323,55.12884253613177,0.0,0.0,0.0,0.0,0.0,-0.007595938732992139
151,1,1.0383036695427965,56.55093159249904,0.0,0.0,0.0,0.0,0.0,-0.0035494756883902886
152,2,1.0509276980984945,69.59762390924895,3.72,-0.5000000093050967,0.17,0.09,-0.0030723019015056027,0.0006541131762565635
153,2,1.0125853778897682,70.67062841000964,2.16,-0.3822343332874409,0.0,0.0,-0.031414622110231855,0.0
154,1,0.9239034821606921,57.34451942945479,0.0,0.0,0.7,0.05,0.0,-0.004697804975861992
155,1,0.9788785702706708,66.45354917339462,0.0,0.0,2.0,0.5,0.0,0.0013251873466351588
156,2,0.9186161659228658,64.73423073388933,0.0,-0.10000000928717472,0.75,0.5,-0.041383834077134224,0.000637667414211607
157,1,0.9568265146943887,68.5951122342736,0.0,0.0,1.235,-0.243,0.0,-0.004344022724289516
158,1,0.9485477282920586,68.18095902426184,0.0,0.0,0.0,0.0,0.0,-0.0011601772261358725
159,1,0.94596158095245,72.586052423529,0.0,0.0,0.33,0.165,0.0,-0.004273059858679291
160,1,0.9285459751631531,71.09407264428442,0.0,0.0,0.0,0.0,0.0,0.0023818118730460913
161,1,1.0020526041430315,68.87161645090717,0.0,0.0,0.35,0.15,0.0,0.0003478629164848591
162,1,0.9500219723941354,79.04003497100234,0.0,0.0,0.85,0.24,0.0,0.0019639881636073124
163,1,1.0421764722114188,62.17481582864131,0.0,0.0,0.0,0.004,0.0,-0.0003790903703937577
164,1,0.9524836807111317,69.46991060292008,0.0,0.0,0.0,0.0,0.0,0.001736522681932831
165,1,0.9545138988119238,87.60119758403225,0.0,0.0,0.0,0.0,0.0,0.0013246281233558724
166,1,0.9509486030919059,91.900745678178,0.0,0.0,0.0,0.0,0.0,0.0007636534707606651
167,1,0.9906406826165184,51.39216871748769,0.0,0.0,2.9989999999999997,0.9570000000000001,0.0,-0.0003921754389071165
168,1,1.0185310414442528,54.17561615889103,0.0,0.0,0.0,0.0,0.0,-0.0006986828828017341
169,1,0.9999440163541269,52.90248883154599,0.0,0.0,0.0,0.0,0.0,-0.0001590496205621452
170,2,0.9612482498991644,53.28241762359758,2.05,0.9000000098294554,4.8180000000000005,2.05,0.039248249899164256,-0.0026652574283858622
171,2,0.9726194920525189,49.39858160668049,0.0,-0.5000000092741549,7.636,2.911,0.0006194920525189652,0.0006262292366476994
172,1,1.0279887239587213,50.916806379124026,0.0,0.0,0.265,0.0,0.0,-9.801386217297314e-5
173,1,0.9811523340039938,42.53304314195823,0.0,0.0,1.635,0.43,0.0,2.026926465681277e-6
174,1,1.0640733305777732,54.20407309481255,0.0,0.0,0.0,0.0,0.0,-0.0002591106699914553
175,1,0.9920103214358704,46.10648318364816,0.0,0.0,1.76,0.83,0.0,-0.001709137872525436
176,2,1.0009860045679613,59.600756787647924,2.28,0.05972494789760723,0.05,0.04,-0.05101399543203864,3.507981095455961e-13
177,2,0.9590780734899368,54.71367831561767,0.84,-0.15000000979378447,0.28,0.12,-0.04892192651006318,0.0022042253684838283
178,1,0.9416210212283623,46.02012226739117,0.0,0.0,4.274,1.736,0.0,0.0037319913506301617
179,1,0.9889558189447653,43.0541025482203,0.0,0.0,0.74,0.29,0.0,-0.0017031322718000243
180,1,0.988184584816845,49.503548456460905,0.0,0.0,0.695,0.493,0.0,0.0008230310057122203
181,1,1.078837624483956,58.04385703788572,0.0,0.0,0.7340000000000001,0.0,0.0,-0.00030806771651172504
182,1,1.0614342059302617,54.036140863338005,0.0,0.0,2.407,0.89,0.0,-0.00019914444254464365
183,1,0.9402048072485565,67.06898365284995,0.0,0.0,0.4,0.04,0.0,0.00012468876777503568
184,1,1.0598662990710086,55.37795117588775,0.0,0.0,1.368,0.166,0.0,-0.0001922474421009233
185,2,1.0782988656547448,57.75407118612156,2.0,0.5519397123232901,0.0,0.0,0.02629886565474472,0.0
186,2,1.100000010991033,61.25628120005864,12.0,4.000000035104466,0.598,0.243,0.03500001099103305,-9.284901092405056e-5
187,2,1.0972360452792798,60.59485487605347,12.0,4.00000003883054,0.598,0.243,0.03223604527927981,-0.0003886796604075297
188,1,1.0819359795276633,58.59704589808627,0.0,0.0,1.8259999999999998,0.436,0.0,-0.00022993643627745828
189,1,1.0805001652354294,10.107894941237937,0.0,0.0,0.07,0.02,0.0,0.00136279674579527
190,2,1.100000010998873,14.853015818603428,4.75,3.000000029025322,0.0,0.0,0.04500001099887289,0.0
191,2,0.998282304520023,50.53171003365971,19.73,6.684474396182681,4.89,0.53,-0.04571769547997703,-1.0985242473620107e-13
192,1,0.8999999900030143,24.934013017183645,0.0,0.0,8.0,0.72,0.0,0.0007717367936614614
193,1,1.0698773440227634,10.128744368758394,0.0,0.0,0.0,0.0,0.0,0.0007377841202991067
194,1,1.0874764872559293,16.27128015581933,0.0,0.0,0.0,0.0,0.0,-0.010550930227620119
195,1,1.078077678651106,14.772404635524376,0.0,0.0,0.0,0.0,0.0,-0.008561484423412863
196,1,1.0453521693638874,10.321733976772514,0.0,0.0,0.1,0.03,0.0,0.00026563914871532366
197,1,1.0644653420270154,11.754729220329413,0.0,0.0,0.43,0.14,0.0,-0.0013157236034980345
198,2,1.1000000109951058,14.34350994925782,4.24,1.9050809328201093,0.64,0.21,0.08500001099510586,-5.532022031720777e-13
199,1,1.0256418314247993,9.827770503043881,0.0,0.0,0.35,0.12,0.0,0.0024074735169389502
200,1,1.0199862851733896,10.121865707335186,0.0,0.0,0.27,0.12,0.0,0.002816609717842011
201,1,1.0453434276508324,9.067572467686984,0.0,0.0,0.41,0.14,0.0,-0.0024907809139887343
202,1,1.0600012572177822,10.57705704515868,0.0,0.0,0.38,0.13,0.0,-0.0025494134148390146
203,1,1.0795281112776232,12.982557342051274,0.0,0.0,0.42,0.14,0.0,-0.0013236799505011285
204,1,1.0547165674314838,10.801487502815334,0.0,0.0,0.72,0.24,0.0,0.0013610786155934772
205,1,1.0654534387900998,10.320698598553042,0.0,0.0,0.0,-0.05,0.0,0.0007901668002086561
206,1,1.0843479844478394,9.26438295367705,0.0,0.0,0.12,0.02,0.0,0.0013364449383331623
207,1,1.1000000109937376,9.322928392992372,0.0,0.0,-0.21,-0.142,0.0,0.0002996733324148015
208,1,1.0749450592870124,9.882309357483798,0.0,0.0,0.07,0.02,0.0,0.0014427521406304366
209,1,1.0845769951489501,10.163034460007307,0.0,0.0,0.38,0.13,0.0,0.0013193741786744358
210,1,1.0555672158439677,11.304851253874379,0.0,0.0,0.0,0.0,0.0,0.0007195154048524109
211,1,1.0651285457178907,12.329086837576236,0.0,0.0,0.96,0.07,0.0,-0.0035684098311487716
212,1,1.0667874249141012,13.163496406849518,0.0,0.0,0.0,0.0,0.0,-0.0046427085642031666
213,2,0.9875758367811529,24.410545154365003,2.72,-0.17798477842481514,0.0,0.0,-0.022424163218847208,0.0
214,1,0.9931168986140485,18.33501618789287,0.0,0.0,0.22,0.16,0.0,0.0004863548061075118
215,1,1.0002100467189206,15.588949251498276,0.0,0.0,0.47,0.26,0.0,-9.846656858444204e-5
216,1,0.9925154895647887,13.26707694741433,0.0,0.0,1.76,1.05,0.0,-0.0002385302460056339
217,1,1.0454673865274595,13.442157963346418,0.0,0.0,1.0,0.75,0.0,-0.001873762844957763
218,1,1.0302305315437204,13.00721970598064,0.0,0.0,1.31,0.96,0.0,-0.0019280486752982647
219,1,1.091783616889007,14.438692269898048,0.0,0.0,0.0,0.0,0.0,-0.0022316876671239732
220,2,1.0092788168228335,13.871796994795785,1.0,0.6000000096258075,2.85,1.0,0.0012788168228336362,-0.0012147366801972715
221,2,1.0372762251481307,13.078200979241911,4.5,3.200000031456629,1.71,0.7,0.037276225148130726,-0.0008365283664651815
222,2,1.0757047723628805,12.544723635701779,2.5,1.543153923638858,3.28,1.88,0.02570477236288069,-2.1195586125495504e-13
223,1,1.0334524515935186,12.88952901192086,0.0,0.0,4.28,2.32,0.0,-0.0006550892023115661
224,1,1.0253907619064329,14.015389675440176,0.0,0.0,1.73,0.99,0.0,-0.0007766930116771866
225,1,0.9120678784960751,24.728778990767005,0.0,0.0,4.1,0.4,0.0,0.0011100942890858439
226,1,1.0469329525743343,13.936094693594073,0.0,0.0,0.0,0.0,0.0,-0.0018341821691957993
227,2,1.014158010896573,8.675612995201597,3.03,2.1803156682254694,5.38,3.69,0.014158010896572898,-4.667924399998648e-13
228,1,1.0655155248514478,14.65185270165548,0.0,0.0,2.23,1.48,0.0,-0.0002734802739196294
229,1,1.0725794272762308,15.589480075126351,0.0,0.0,0.96,0.46,0.0,-0.0003977216836685298
230,2,1.0495925277823186,21.54555667237772,3.45,0.013708454063223265,0.0,0.0,0.009592527782318484,0.0
231,1,1.091863425170109,14.35389499049355,0.0,0.0,1.59,1.07,0.0,-0.0010575905473598523
232,1,1.0760433850821562,12.516022011706433,0.0,0.0,4.48,1.43,0.0,-0.0009251286921938526
233,2,1.0041711030774403,9.969446814755822,3.0,0.690371710226406,4.04,2.12,0.0041711030774402936,-2.5592330919845703e-14
234,1,1.0554486962456338,14.763034701759358,0.0,0.0,5.72,2.44,0.0,-0.00026526019670892814
235,1,0.9998874999586626,14.76060933963796,0.0,0.0,2.69,1.57,0.0,9.870027747044227e-5
236,2,1.0315765277446525,20.0917916724757,6.0,3.0000000287427073,0.0,0.0,0.015576527744652468,0.0
237,1,1.0934358255626346,14.475079712312233,0.0,0.0,0.0,0.0,0.0,-0.0013454882365902454
238,2,0.9997954955201784,14.864482565105908,2.5,-2.00000001738595,2.55,1.49,-0.010204504479821535,0.00017388554048922028
239,2,0.9928694628675747,20.026966519564724,5.5,0.8615729919036014,0.0,0.0,-0.0071305371324253235,0.0
240,1,1.0667456302036968,15.29740689033731,0.0,0.0,0.0,0.0,0.0,-0.0004597060913798857
241,2,1.1000000109902608,18.683838297576333,5.747999999999999,0.492868537123428,0.0,0.0,0.050000010990260677,0.0
242,2,0.993899259202643,18.35485447610405,1.7,0.39999999059655184,0.0,0.0,0.0008992592026429448,0.0
243,2,1.0049814864116648,16.77961247987683,0.84,0.432275834984059,0.08,0.03,-0.0050185135883350695,1.2847042181989134e-11
244,1,0.9891596586342896,15.799340930200312,0.0,0.0,0.0,0.0,0.0,0.001060679479807302
245,1,0.9716490959232771,15.041368387564155,0.0,0.0,0.61,0.3,0.0,0.0020137710527559946
246,1,0.9653812770015188,14.211079693534497,0.0,0.0,0.77,0.33,0.0,0.002604751465246718
247,1,0.9765440227025582,14.237350548207518,0.0,0.0,0.61,0.3,0.0,0.002302637985809107
248,1,1.0068018463084238,10.498348734437156,0.0,0.0,0.29,0.14,0.0,-0.0008764410432317485
249,1,1.0066030489722548,10.090030019708959,0.0,0.0,0.29,0.14,0.0,-0.0009686164596873898
250,1,1.0503726628955428,11.824359497081073,0.0,0.0,-0.23,-0.17,0.0,-0.003886659872320181
281,1,1.0680441454521707,15.364462943310004,0.0,0.0,-0.331,-0.294,0.0,-0.00048348612734619943
319,1,1.0672137323177815,48.1472360586919,0.0,0.0,1.158,-0.24,0.0,-0.0021531163667772983
320,1,1.0660916945434602,44.75086084524708,0.0,0.0,0.024,-0.126,0.0,-0.001878450120567923
322,1,1.07929279728853,19.891869661775495,0.0,0.0,0.024,-0.039,0.0,-0.007729472503596493
323,1,1.0458901702982477,24.648213747904645,0.0,0.0,-0.149,0.265,0.0,-0.005492097882134598
324,1,1.0709263957598563,13.962336806016706,0.0,0.0,0.247,-0.012,0.0,-0.01215360898741961
526,1,1.0338063135951132,10.485890684895663,0.0,0.0,1.453,-0.349,0.0,-0.022857871803477026
528,1,1.045115316456879,-0.0884060056246051,0.0,0.0,0.281,-0.205,0.0,-0.014565576365359151
531,1,1.0295099917106074,7.369764205975882,0.0,0.0,0.14,0.025,0.0,-0.011041146619248219
552,1,1.0696016473067615,12.324558888308406,0.0,0.0,-0.111,-0.013999999999999999,0.0,-0.010365171264654862
562,1,1.0368073737423773,8.399399840587655,0.0,0.0,0.505,0.174,0.0,-0.02517679765260886
609,1,1.029188619925916,7.59393393555664,0.0,0.0,0.29600000000000004,0.006,0.0,-0.009535443306210286
664,1,1.071108545870649,18.32731234663793,0.0,0.0,-1.14,0.767,0.0,-0.010689001250548015
1190,1,1.0849052064982874,94.88497064446318,0.0,0.0,1.003,0.2917,0.0,8.386997672464294e-5
1200,1,1.0457683586632873,94.63536444816839,0.0,0.0,-1.0,0.3417,0.0,0.01511672071094142
1201,1,1.1000000109981185,106.03791076515553,0.0,0.0,0.0,0.0,0.0,-0.18297897933929985
2040,1,1.041459441559618,20.770011265485373,0.0,0.0,0.0,0.0,0.0,0.0002459119124036971
7001,2,1.100000010997509,57.46952958081032,4.67,1.8472107339689923,0.0,0.0,0.0490000109975091,0.0
7002,2,1.1000000109986645,58.20598935282937,6.23,1.6760489780815997,0.0,0.0,0.049000010998664405,0.0
7003,2,1.056237088596879,60.58971869189353,12.1,4.200000041949118,0.0,0.0,0.02723708859687903,0.0
7011,2,1.0695974783008912,51.26645547389576,2.34,1.0000000098696065,0.0,0.0,0.05459747830089149,0.0
7012,2,1.0896031026379436,58.249573274858605,3.72,2.24000002230499,0.0,0.0,0.038603102637943455,0.0
7017,2,1.0503747225773483,29.51952186779823,3.3,3.5000000349874907,0.0,0.0,0.0013747225773484914,0.0
7023,2,1.0993188280961146,52.37230796662427,1.85,-9.55160384897422e-9,0.0,0.0,0.04831882809611476,0.0
7024,2,1.0917602990527764,58.154693985874616,4.1,1.5149393229718502,0.0,0.0,0.06276029905277633,0.0
7039,2,1.0620026782835783,37.26138400589973,5.0,2.0000000199911447,0.0,0.0,0.012002678283578351,0.0
7044,2,1.0440269633058659,20.979755892215834,0.37,0.42000000998724163,0.0,0.0,0.029026963305865936,0.0
7049,3,0.8999999900002237,0.0,-4.4238470182626966,0.0,0.0,0.0,-0.1510000099997763,0.0
7055,2,1.00777905090163,23.756647014950826,0.45,0.2500000099935391,0.0,0.0,0.010779050901630073,0.0
7057,2,1.0671844607683483,33.19482633796632,1.65,0.9000000099894948,0.0,0.0,0.04618446076834844,0.0
7061,2,1.0977905988260916,41.04885496179587,4.0,1.5000000149836472,0.0,0.0,0.08279059882609185,0.0
7062,2,1.049619592755511,46.39311189908462,4.0,1.5000000149804797,0.0,0.0,0.047619592755511114,0.0
7071,2,1.0497763776990845,10.679328687396614,1.16,0.8700000099493767,0.0,0.0,0.06077637769908448,0.0
7130,2,1.1000000109975143,70.15047908602224,12.92,4.16427002907014,0.0,0.0,0.04900001099751427,0.0
7139,2,1.057959390778348,60.773905596704914,7.0,2.538701752612404,0.0,0.0,0.006959390778348061,0.0
7166,2,0.9676412071677258,97.2110453221521,5.53,1.3053104114521756,0.0,0.0,-0.04735879283227399,0.0
9001,1,1.00206185040484,16.93974012818749,0.0,0.0,0.0,0.0,0.0,-0.09254948946887291
9002,2,1.0807116550058564,11.459494944663595,0.0,0.02000000996589564,0.0,0.0,0.08671165500585629,0.0
9003,1,1.0990472233818687,8.879484788772952,0.0,0.0,0.0271,0.009399999999999999,0.0,-0.026038642159215364
9004,1,1.0984774137979902,8.452548184033787,0.0,0.0,0.0086,0.0028000000000000004,0.0,-0.024914210570228666
9005,1,1.0044416414065886,16.963839914748235,0.0,0.0,0.0,0.0,0.0,-0.09211767991767213
9006,1,1.0872331054037574,11.014415615523436,0.0,0.0,0.0,0.0,0.0,-0.041253038468214355
9007,1,1.0965913008093728,9.771518626524232,0.0,0.0,0.0,0.0,0.0,-0.031070946028074916
9012,1,1.0729856866588747,12.486047280827538,0.0,0.0,0.0,0.0,0.0,-0.03171170611014477
9021,1,1.078830052066162,11.138596895252759,0.0,0.0,0.0475,0.015600000000000001,0.0,-0.01327555023057545
9022,1,1.092979939475605,8.867563160907281,0.0,0.0,0.015300000000000001,0.0053,0.0,-0.01353365403360407
9023,1,1.088490885725828,9.52878895540705,0.0,0.0,0.0,0.0,0.0,-0.013939569394753555
9024,1,1.0997721581729787,9.144508834087446,0.0,0.0,0.013500000000000002,0.004699999999999999,0.0,-0.013638326182258142
9025,1,1.1000000108121282,8.551327462373399,0.0,0.0,0.0045000000000000005,0.0016,0.0,-0.005615017991200563
9026,1,1.1000000108216632,8.624363192249568,0.0,0.0,0.0045000000000000005,0.0016,0.0,-0.005904065306131213
9031,1,1.10000001087818,4.667819419580264,0.0,0.0,0.0184,0.0064,0.0,-0.010222715997105027
9032,1,1.1000000108907046,5.556913638287458,0.0,0.0,0.0139,0.0048,0.0,-0.007621148336345236
9033,1,1.1000000108728318,4.428545528322602,0.0,0.0,0.0189,0.006500000000000001,0.0,-0.010455267055566677
9034,1,1.1000000109850707,7.843014094969307,0.0,0.0,0.0155,0.0054,0.0,0.013067405249979637
9035,1,1.100000010915632,6.072289136157202,0.0,0.0,0.0166,0.0058,0.0,-0.009138875177029914
9036,1,1.1000000109419146,6.446691099131798,0.0,0.0,0.030299999999999997,0.01,0.0,-0.014071835993483398
9037,1,1.1000000109338732,6.546972851965568,0.0,0.0,0.018600000000000002,0.0064,0.0,-0.009981545244456956
9038,1,1.1000000108983516,5.143499771628405,0.0,0.0,0.0258,0.0089,0.0,-0.013956013338996275
9041,1,1.1000000109470016,7.23633179650539,0.0,0.0,0.0101,0.0034999999999999996,0.0,-0.005798488221927661
9042,1,1.1000000108886245,6.254740033209661,0.0,0.0,0.008100000000000001,0.0028000000000000004,0.0,-0.004843430008679258
9043,1,1.1000000109587864,7.143468825621942,0.0,0.0,0.016,0.0052,0.0,-0.00784647981282148
9044,1,1.0992339940354103,8.562775173841779,0.0,0.0,0.0,0.0,0.0,-0.025343809770790086
9051,2,1.0118585827333526,16.800236990508104,0.0,0.1735000099941458,0.0,0.0,0.011858582733352437,0.0
9052,1,1.012211038780028,11.108350895046003,0.0,0.0,0.3,0.23,0.0,-0.10279070589497362
9053,2,1.023073944825024,16.53604637167868,0.0,0.1283000099932588,0.0,0.0,0.023073944825023965,0.0
9054,2,1.0160446561522536,21.422842245580274,0.5,0.38000000999439,0.0,0.0,0.016044656152253506,0.0
9055,2,1.0076458774418946,20.74901887610253,0.08,0.06000000999422323,0.0,0.0,0.007645877441894524,0.0
9071,1,1.100000010950266,8.272771926835178,0.0,0.0,0.0102,0.0034999999999999996,0.0,-0.006419806755257414
9072,1,1.1000000109647607,8.72443842398894,0.0,0.0,0.0102,0.0034999999999999996,0.0,-0.006947636684715766
9121,1,1.081547758490219,10.404730370301058,0.0,0.0,0.038,0.0125,0.0,-0.03166033960542739
9533,1,1.1000000109746928,16.10059785822553,0.0,0.0,0.011899999999999999,0.0040999999999999995,0.0,-0.05167615714907495
